<?xml version="1.0" encoding="UTF-8"?>

<!-- generated on 05/23/20 14:04:15 by Eclipse SUMO netedit Version 1.5.0
<configuration xmlns:xsi="http://www.w3.org/2001/XMLSchema-instance" xsi:noNamespaceSchemaLocation="http://sumo.dlr.de/xsd/netconvertConfiguration.xsd">

    <output>
        <output-file value="D:\Stuff\git\sumo-examples\simple\net.net.xml"/>
    </output>

    <processing>
        <offset.disable-normalization value="true"/>
    </processing>

    <junctions>
        <no-turnarounds value="true"/>
    </junctions>

    <report>
        <aggregate-warnings value="5"/>
    </report>

</configuration>
-->

<net version="1.3" junctionCornerDetail="5" limitTurnSpeed="5.50" xmlns:xsi="http://www.w3.org/2001/XMLSchema-instance" xsi:noNamespaceSchemaLocation="http://sumo.dlr.de/xsd/net_file.xsd">

    <location netOffset="0.00,0.00" convBoundary="-22.76,32.28,83.70,75.28" origBoundary="10000000000.00,10000000000.00,-10000000000.00,-10000000000.00" projParameter="!"/>

    <edge id=":gneJ0_0" function="internal">
        <lane id=":gneJ0_0_0" index="0" allow="rail" speed="4.52" length="5.40" shape="-23.76,33.53 -25.02,32.28 -25.27,31.39 -24.52,30.86 -22.75,30.68"/>
    </edge>
    <edge id=":gneJ1_0" function="internal">
        <lane id=":gneJ1_0_0" index="0" allow="rail" speed="4.52" length="5.39" shape="83.70,30.84 85.46,31.02 86.22,31.56 85.96,32.44 84.70,33.69"/>
    </edge>
    <edge id=":gneJ2_0" function="internal">
        <lane id=":gneJ2_0_0" index="0" allow="rail" speed="4.54" length="2.20" shape="31.48,76.52 30.97,76.83 30.47,76.93 29.97,76.82 29.47,76.52"/>
    </edge>

    <edge id="gneE0" from="gneJ0" to="gneJ1" priority="-1" type="rail">
        <lane id="gneE0_0" index="0" allow="rail" speed="13.89" length="106.46" shape="-22.75,30.68 83.70,30.84"/>
    </edge>
    <edge id="gneE1" from="gneJ1" to="gneJ2" priority="-1" type="rail">
        <lane id="gneE1_0" index="0" allow="rail" speed="13.89" length="68.32" shape="84.70,33.69 31.48,76.52"/>
    </edge>
    <edge id="gneE2" from="gneJ2" to="gneJ0" priority="-1" type="rail">
        <lane id="gneE2_0" index="0" allow="rail" speed="13.89" length="68.42" shape="29.47,76.52 -23.76,33.53"/>
    </edge>

    <junction id="gneJ0" type="priority" x="-22.76" y="32.28" incLanes="gneE2_0" intLanes=":gneJ0_0_0" shape="-24.77,34.77 -22.76,32.28 -22.75,29.08 -25.33,29.24 -27.01,29.71 -27.79,30.50 -27.68,31.61 -26.67,33.03">
        <request index="0" response="0" foes="0" cont="0"/>
    </junction>
    <junction id="gneJ1" type="priority" x="83.70" y="32.44" incLanes="gneE0_0" intLanes=":gneJ1_0_0" shape="83.71,29.24 83.70,32.44 85.71,34.93 87.61,33.20 88.62,31.78 88.74,30.67 87.95,29.88 86.28,29.40">
        <request index="0" response="0" foes="0" cont="0"/>
    </junction>
    <junction id="gneJ2" type="priority" x="30.47" y="75.28" incLanes="gneE1_0" intLanes=":gneJ2_0_0" shape="32.48,77.77 30.47,75.28 28.46,77.77 29.80,78.49 30.47,78.58 31.14,78.49 31.81,78.22">
        <request index="0" response="0" foes="0" cont="0"/>
    </junction>

    <connection from="gneE0" to="gneE1" fromLane="0" toLane="0" via=":gneJ1_0_0" dir="l" state="M"/>
    <connection from="gneE1" to="gneE2" fromLane="0" toLane="0" via=":gneJ2_0_0" dir="l" state="M"/>
    <connection from="gneE2" to="gneE0" fromLane="0" toLane="0" via=":gneJ0_0_0" dir="l" state="M"/>

    <connection from=":gneJ0_0" to="gneE0" fromLane="0" toLane="0" dir="l" state="M"/>
    <connection from=":gneJ1_0" to="gneE1" fromLane="0" toLane="0" dir="l" state="M"/>
    <connection from=":gneJ2_0" to="gneE2" fromLane="0" toLane="0" dir="l" state="M"/>

</net>
