<?xml version="1.0" encoding="UTF-8"?>

<!-- generated on Sat May 23 13:01:36 2020 by Eclipse SUMO duarouter Version 1.1.0
<configuration xmlns:xsi="http://www.w3.org/2001/XMLSchema-instance" xsi:noNamespaceSchemaLocation="http://sumo.dlr.de/xsd/duarouterConfiguration.xsd">

    <input>
        <net-file value="circle.net.xml"/>
        <route-files value="routes.rou.xml"/>
    </input>

    <output>
        <output-file value="routes2.rou.xml"/>
        <alternatives-output value="routes2.rou.alt.xml"/>
    </output>

</configuration>
-->

<routes xmlns:xsi="http://www.w3.org/2001/XMLSchema-instance" xsi:noNamespaceSchemaLocation="http://sumo.dlr.de/xsd/routes_file.xsd">
    <vType id="train" length="150.00" speedFactor="0.90" vClass="rail" accel="1" decel="1"/>
    <vehicle id="trip_0" type="train" depart="0.00" arrivalSpeed="0.00">
        <route edges="gneE19 gneE21 gneE1 gneE4 gneE5 gneE6 gneE7 gneE8 gneE9 gneE10 gneE11 gneE12 gneE13 gneE14 gneE15 gneE16 gneE20"/>
    </vehicle>
</routes>
